OPT_V10/Two_days_MCY3_MIQCPM1/powerflow_results_t8.txt
Pandapower Network Debug Info
==================================================

BUS:
       vm_pu  va_degree      p_mw    q_mvar
0   0.993090   0.093571  0.000753  0.000978
1   0.988640   0.156691  0.001475  0.001968
2   0.984591   0.210498  0.002250  0.002765
3   0.989373   0.141566  0.002827  0.003437
4   0.999881   0.000530  0.010398  0.009762
5   0.999867   0.000551  0.012379  0.010062
6   0.999857   0.000570  0.012660  0.010542
7   0.999927   0.000408  0.000000  0.000000
8   0.999927   0.000414  0.000000  0.000000
9   1.000000   0.000000 -0.042881 -0.044606
10  1.000000   0.000006  0.000000  0.000000
--------------------------------------------------

LINE:
   p_from_mw  q_from_mvar   p_to_mw  q_to_mvar         pl_mw       ql_mvar  i_from_ka   i_to_ka      i_ka  vm_from_pu  va_from_degree  vm_to_pu  va_to_degree  loading_percent
0   0.042871     0.040606 -0.042868  -0.040603  3.410546e-06  2.659259e-06   0.002273  0.002273  0.002273    1.000000        0.000006  0.999927      0.000408         0.988173
1   0.035440     0.030367 -0.035438  -0.030366  1.684559e-06  1.313478e-06   0.001796  0.001796  0.001796    0.999927        0.000408  0.999881      0.000530         0.781078
2   0.007418     0.009236 -0.007353  -0.009185  6.564873e-05  5.118740e-05   0.017100  0.017100  0.017100    0.999927        0.000414  0.993090      0.093571         7.434838
3  -0.025039    -0.020604  0.025040   0.020604  3.637203e-07  2.835987e-07   0.001248  0.001248  0.001248    0.999867        0.000551  0.999881      0.000530         0.542722
4  -0.012660    -0.010542  0.012660   0.010542  1.327716e-07  1.035242e-07   0.000634  0.000634  0.000634    0.999857        0.000570  0.999867      0.000551         0.275733
5  -0.003737    -0.004742  0.003759   0.004759  2.206617e-05  1.720536e-05   0.008815  0.008815  0.008815    0.988640        0.156691  0.993090      0.093571         3.832585
6  -0.002827    -0.003437  0.002840   0.003447  1.350825e-05  1.053260e-05   0.006492  0.006492  0.006492    0.989373        0.141566  0.993090      0.093571         2.822704
7  -0.002250    -0.002765  0.002262   0.002774  1.185886e-05  9.246549e-06   0.005226  0.005226  0.005226    0.984591        0.210498  0.988640      0.156691         2.272198
--------------------------------------------------

TRAFO:
    p_hv_mw  q_hv_mvar   p_lv_mw  q_lv_mvar    pl_mw  ql_mvar   i_hv_ka   i_lv_ka  vm_hv_pu  va_hv_degree  vm_lv_pu  va_lv_degree  loading_percent
0  0.007428   0.010236 -0.007418  -0.009236  0.00001    0.001  0.000487  0.017100  0.999927      0.000408  0.999927      0.000414         0.126483
1  0.042881   0.044606 -0.042871  -0.040606  0.00001    0.004  0.000510  0.002273  1.000000      0.000000  1.000000      0.000006         0.154687
--------------------------------------------------
